power-feeders/Taxonomy_feeders/R2_1247_1_t6.glm
//Input feeder information for Taxonomy Feeders with different cases.
//Started on 10/21/09. This version created 25-Feb-2019 18:33:45.
// This version was created to perform FY11 Department of Energy
// analysis on the benefits of the SGIG grant projects.

clock {
     timezone CST+6CDT;
     starttime '2009-01-01 00:00:00';
     stoptime '2010-01-02 00:00:00';
}

#include "appliance_schedules.glm";
#include "water_and_setpoint_schedule_v5.glm";
#include "commercial_schedules.glm";
#include "daily_elasticity_schedules.glm";
//#define stylesheet=http://gridlab-d.svn.sourceforge.net/viewvc/gridlab-d/trunk/core/gridlabd-2_0
#set minimum_timestep=60;
#set profiler=1;
#set relax_naming_rules=1;

module tape;
module climate;
module residential {
     implicit_enduses NONE;
};
module powerflow {
     solver_method NR;
     NR_iteration_limit 50;
};

class player {
     double value;
};

module market;

class auction {
     double my_avg;
     double my_std;
};

object player {
     name CPP_days_R2;
     file CPP_days_R2.player;
};

object auction {
     name Market_1;
     period 900;
     special_mode BUYERS_ONLY;
     unit kW;
     my_avg 0.096572;
     my_std 0.033614;
     object player {
          file R2_1247_1_t0_TOU.player;
          loop 10;
          property current_market.clearing_price;
     };
}

object climate {
     name "IL-Chicago";
     tmyfile "IL-Chicago.tmy2";
     interpolate QUADRATIC;
};

//Configurations

object regulator_configuration {     
      name regulator_configuration_1827;     
      name feeder_reg_cfg;     
      Control OUTPUT_VOLTAGE;     
      band_center 7500.0;     
      band_width 120;     
      connect_type WYE_WYE;     
      time_delay 30;     
      raise_taps 16;     
      lower_taps 16;     
      regulation 0.10;     
      tap_pos_A 0;     
      tap_pos_B 0;     
      tap_pos_C 0;     
}       

object line_configuration {     
      name line_configuration_31;     
      conductor_A underground_line_conductor_2;     
      conductor_B underground_line_conductor_2;     
      conductor_C underground_line_conductor_2;     
      conductor_N underground_line_conductor_2;     
      spacing line_spacing_21;     
}       

object line_configuration {     
      name line_configuration_32;     
      conductor_B underground_line_conductor_3;     
      conductor_N underground_line_conductor_3;     
      spacing line_spacing_22;     
}       

object line_configuration {     
      name line_configuration_33;     
      conductor_A overhead_line_conductor_4;     
      conductor_B overhead_line_conductor_4;     
      conductor_C overhead_line_conductor_4;     
      conductor_N overhead_line_conductor_4;     
      spacing line_spacing_23;     
}       

object line_configuration {     
      name line_configuration_34;     
      conductor_C underground_line_conductor_3;     
      conductor_N underground_line_conductor_3;     
      spacing line_spacing_24;     
}       

object line_configuration {     
      name line_configuration_35;     
      conductor_A underground_line_conductor_3;     
      conductor_N underground_line_conductor_3;     
      spacing line_spacing_25;     
}       

object line_configuration {     
      name line_configuration_36;     
      conductor_A underground_line_conductor_3;     
      conductor_B underground_line_conductor_3;     
      conductor_C underground_line_conductor_3;     
      conductor_N underground_line_conductor_3;     
      spacing line_spacing_21;     
}       

object line_configuration {     
      name line_configuration_37;     
      conductor_B overhead_line_conductor_5;     
      conductor_N overhead_line_conductor_5;     
      spacing line_spacing_26;     
}       

object line_configuration {     
      name line_configuration_38;     
      conductor_A overhead_line_conductor_6;     
      conductor_B overhead_line_conductor_6;     
      conductor_C overhead_line_conductor_6;     
      conductor_N overhead_line_conductor_6;     
      spacing line_spacing_23;     
}       

object line_configuration {     
      name line_configuration_39;     
      conductor_A overhead_line_conductor_6;     
      conductor_N overhead_line_conductor_6;     
      spacing line_spacing_27;     
}       

object line_configuration {     
      name line_configuration_40;     
      conductor_A underground_line_conductor_7;     
      conductor_B underground_line_conductor_7;     
      conductor_C underground_line_conductor_7;     
      conductor_N underground_line_conductor_7;     
      spacing line_spacing_21;     
}       

object line_configuration {     
      name line_configuration_41;     
      conductor_B overhead_line_conductor_6;     
      conductor_N overhead_line_conductor_6;     
      spacing line_spacing_26;     
}       

object line_configuration {     
      name line_configuration_42;     
      conductor_A underground_line_conductor_8;     
      conductor_B underground_line_conductor_8;     
      conductor_C underground_line_conductor_8;     
      conductor_N underground_line_conductor_8;     
      spacing line_spacing_23;     
}       

object line_configuration {     
      name line_configuration_43;     
      conductor_A overhead_line_conductor_5;     
      conductor_B overhead_line_conductor_5;     
      conductor_C overhead_line_conductor_5;     
      conductor_N overhead_line_conductor_5;     
      spacing line_spacing_23;     
}       

object line_configuration {     
      name line_configuration_44;     
      conductor_A overhead_line_conductor_4;     
      conductor_N overhead_line_conductor_4;     
      spacing line_spacing_27;     
}       

object line_configuration {     
      name line_configuration_45;     
      conductor_A underground_line_conductor_9;     
      conductor_B underground_line_conductor_9;     
      conductor_C underground_line_conductor_9;     
      conductor_N underground_line_conductor_9;     
      spacing line_spacing_23;     
}       

object line_configuration {     
      name line_configuration_46;     
      conductor_A underground_line_conductor_9;     
      conductor_B underground_line_conductor_9;     
      conductor_C underground_line_conductor_9;     
      conductor_N underground_line_conductor_9;     
      spacing line_spacing_21;     
}       

object line_configuration {     
      name line_configuration_47;     
      conductor_A overhead_line_conductor_10;     
      conductor_B overhead_line_conductor_10;     
      conductor_C overhead_line_conductor_10;     
      conductor_N overhead_line_conductor_10;     
      spacing line_spacing_23;     
}       

object line_configuration {     
      name line_configuration_48;     
      conductor_A overhead_line_conductor_5;     
      conductor_N overhead_line_conductor_5;     
      spacing line_spacing_27;     
}       

object line_configuration {     
      name line_configuration_49;     
      conductor_A overhead_line_conductor_11;     
      conductor_B overhead_line_conductor_11;     
      conductor_C overhead_line_conductor_11;     
      conductor_N overhead_line_conductor_11;     
      spacing line_spacing_23;     
}       

object line_configuration {     
      name line_configuration_50;     
      conductor_B overhead_line_conductor_12;     
      conductor_N overhead_line_conductor_12;     
      spacing line_spacing_26;     
}       

object line_configuration {     
      name line_configuration_51;     
      conductor_C overhead_line_conductor_12;     
      conductor_N overhead_line_conductor_12;     
      spacing line_spacing_28;     
}       

object line_configuration {     
      name line_configuration_52;     
      conductor_B overhead_line_conductor_13;     
      conductor_N overhead_line_conductor_13;     
      spacing line_spacing_26;     
}       

object line_configuration {     
      name line_configuration_53;     
      conductor_A overhead_line_conductor_12;     
      conductor_B overhead_line_conductor_12;     
      conductor_C overhead_line_conductor_12;     
      conductor_N overhead_line_conductor_12;     
      spacing line_spacing_23;     
}       

object line_configuration {     
      name line_configuration_54;     
      conductor_A overhead_line_conductor_6;     
      conductor_B overhead_line_conductor_6;     
      conductor_C overhead_line_conductor_6;     
      conductor_N overhead_line_conductor_6;     
      spacing line_spacing_23;     
}       

object line_configuration {     
      name line_configuration_55;     
      conductor_B overhead_line_conductor_10;     
      conductor_N overhead_line_conductor_10;     
      spacing line_spacing_26;     
}       

object line_configuration {     
      name line_configuration_56;     
      conductor_A overhead_line_conductor_14;     
      conductor_B overhead_line_conductor_14;     
      conductor_C overhead_line_conductor_14;     
      conductor_N overhead_line_conductor_14;     
      spacing line_spacing_23;     
}       

object line_configuration {     
      name line_configuration_57;     
      conductor_A overhead_line_conductor_5;     
      conductor_B overhead_line_conductor_5;     
      conductor_N overhead_line_conductor_5;     
      spacing line_spacing_29;     
}       

object line_configuration {     
      name line_configuration_58;     
      conductor_A overhead_line_conductor_15;     
      conductor_B overhead_line_conductor_15;     
      conductor_C overhead_line_conductor_15;     
      conductor_N overhead_line_conductor_15;     
      spacing line_spacing_23;     
}       

object line_configuration {     
      name line_configuration_59;     
      conductor_A underground_line_conductor_8;     
      conductor_B underground_line_conductor_8;     
      conductor_C underground_line_conductor_8;     
      conductor_N underground_line_conductor_8;     
      spacing line_spacing_21;     
}       

object line_configuration {     
      name line_configuration_60;     
      conductor_A underground_line_conductor_9;     
      conductor_N underground_line_conductor_9;     
      spacing line_spacing_25;     
}       

object line_configuration {     
      name line_configuration_61;     
      conductor_A overhead_line_conductor_13;     
      conductor_N overhead_line_conductor_13;     
      spacing line_spacing_27;     
}       

object line_configuration {     
      name line_configuration_62;     
      conductor_A overhead_line_conductor_13;     
      conductor_B overhead_line_conductor_13;     
      conductor_C overhead_line_conductor_13;     
      conductor_N overhead_line_conductor_13;     
      spacing line_spacing_23;     
}       

object line_configuration {     
      name line_configuration_63;     
      conductor_C overhead_line_conductor_16;     
      conductor_N overhead_line_conductor_16;     
      spacing line_spacing_28;     
}       

object line_configuration {     
      name line_configuration_64;     
      conductor_C overhead_line_conductor_6;     
      conductor_N overhead_line_conductor_6;     
      spacing line_spacing_28;     
}       

object line_configuration {     
      name line_configuration_65;     
      conductor_A overhead_line_conductor_15;     
      conductor_B overhead_line_conductor_15;     
      conductor_C overhead_line_conductor_15;     
      conductor_N overhead_line_conductor_15;     
      spacing line_spacing_23;     
}       

object line_configuration {     
      name line_configuration_66;     
      conductor_A overhead_line_conductor_6;     
      conductor_B overhead_line_conductor_6;     
      conductor_C overhead_line_conductor_6;     
      conductor_N overhead_line_conductor_6;     
      spacing line_spacing_23;     
}       

object line_configuration {     
      name line_configuration_67;     
      conductor_A overhead_line_conductor_17;     
      conductor_B overhead_line_conductor_17;     
      conductor_C overhead_line_conductor_17;     
      conductor_N overhead_line_conductor_17;     
      spacing line_spacing_23;     
}       

object line_configuration {     
      name line_configuration_68;     
      conductor_B overhead_line_conductor_5;     
      conductor_C overhead_line_conductor_5;     
      conductor_N overhead_line_conductor_5;     
      spacing line_spacing_30;     
}       

object line_configuration {     
      name line_configuration_69;     
      conductor_A overhead_line_conductor_14;     
      conductor_B overhead_line_conductor_14;     
      conductor_N overhead_line_conductor_14;     
      spacing line_spacing_29;     
}       

object line_configuration {     
      name line_configuration_70;     
      conductor_A overhead_line_conductor_5;     
      conductor_B overhead_line_conductor_5;     
      conductor_C overhead_line_conductor_5;     
      conductor_N overhead_line_conductor_5;     
      spacing line_spacing_23;     
}       

object line_configuration {     
      name line_configuration_71;     
      conductor_A overhead_line_conductor_5;     
      conductor_B overhead_line_conductor_5;     
      conductor_C overhead_line_conductor_5;     
      conductor_N overhead_line_conductor_5;     
      spacing line_spacing_23;     
}       

object line_spacing {     
      name line_spacing_21;     
      distance_AB 3.0 in;    
      distance_BC 3.0 in;    
      distance_AC 3.0 in;    
      distance_AN 2.0 in;    
      distance_BN 2.0 in;    
      distance_CN 2.0 in;    
}       

object line_spacing {     
      name line_spacing_22;     
      distance_BN 2.0 in;    
}       

object line_spacing {     
      name line_spacing_23;     
      distance_AB 48.0 in;    
      distance_BC 48.0 in;    
      distance_AC 48.0 in;    
      distance_AN 36.0 in;    
      distance_BN 36.0 in;    
      distance_CN 36.0 in;    
}       

object line_spacing {     
      name line_spacing_24;     
      distance_CN 2.0 in;    
}       

object line_spacing {     
      name line_spacing_25;     
      distance_AN 2.0 in;    
}       

object line_spacing {     
      name line_spacing_26;     
      distance_BN 36.0 in;    
}       

object line_spacing {     
      name line_spacing_27;     
      distance_AN 36.0 in;    
}       

object line_spacing {     
      name line_spacing_28;     
      distance_CN 36.0 in;    
}       

object line_spacing {     
      name line_spacing_29;     
      distance_AB 48.0 in;    
      distance_AN 36.0 in;    
      distance_BN 36.0 in;    
}       

object line_spacing {     
      name line_spacing_30;     
      distance_BC 48.0 in;    
      distance_BN 36.0 in;    
      distance_CN 36.0 in;    
}       

object overhead_line_conductor {     
      name overhead_line_conductor_4;     
      //name 336.4 AAC;    
      rating.summer.continuous 443.0;     
      geometric_mean_radius 0.02270 ft;    
      resistance 0.05230;     
}       

object overhead_line_conductor {     
      name overhead_line_conductor_5;     
      //name 4 AAAC;    
      rating.summer.continuous 120.0;     
      geometric_mean_radius 0.00700 ft;    
      resistance 2.40970;     
}       

object overhead_line_conductor {     
      name overhead_line_conductor_6;     
      //name 4 CU;    
      rating.summer.continuous 149.0;     
      geometric_mean_radius 0.00663 ft;    
      resistance 1.50000;     
}       

object overhead_line_conductor {     
      name overhead_line_conductor_10;     
      //name 556.5 AAC;    
      rating.summer.continuous 605.0;     
      geometric_mean_radius 0.02920 ft;    
      resistance 0.03180;     
}       

object overhead_line_conductor {     
      name overhead_line_conductor_11;     
      //name 266.8 AAC;    
      rating.summer.continuous 388.0;     
      geometric_mean_radius 0.02020 ft;    
      resistance 0.06570;     
}       

object overhead_line_conductor {     
      name overhead_line_conductor_12;     
      //name 4 ACSR;    
      rating.summer.continuous 123.0;     
      geometric_mean_radius 0.00437 ft;    
      resistance 2.53069;     
}       

object overhead_line_conductor {     
      name overhead_line_conductor_13;     
      //name 4 AAC;    
      rating.summer.continuous 120.0;     
      geometric_mean_radius 0.00756 ft;    
      resistance 0.42000;     
}       

object overhead_line_conductor {     
      name overhead_line_conductor_14;     
      //name 123.3 AAAC;    
      rating.summer.continuous 256.0;     
      geometric_mean_radius 0.01200 ft;    
      resistance 0.16600;     
}       

object overhead_line_conductor {     
      name overhead_line_conductor_15;     
      //name 2 CU;    
      rating.summer.continuous 204.0;     
      geometric_mean_radius 0.00836 ft;    
      resistance 0.94500;     
}       

object overhead_line_conductor {     
      name overhead_line_conductor_16;     
      //name 6 CU;    
      rating.summer.continuous 112.0;     
      geometric_mean_radius 0.00526 ft;    
      resistance 2.39000;     
}       

object overhead_line_conductor {     
      name overhead_line_conductor_17;     
      //name 1/0 ACSR;    
      rating.summer.continuous 230.0;     
      geometric_mean_radius 0.00446 ft;    
      resistance 1.04100;     
}       

object overhead_line_conductor {     
      name overhead_line_conductor_18;     
      //name 2 AAC;    
      rating.summer.continuous 164.0;     
      geometric_mean_radius 0.00883 ft;    
      resistance 1.51970;     
}       

object overhead_line_conductor {     
      name overhead_line_conductor_19;     
      //name 2 AAAC;    
      rating.summer.continuous 197.0;     
      geometric_mean_radius 0.00883 ft;    
      resistance 1.51970;     
}       

object overhead_line_conductor {     
      name overhead_line_conductor_20;     
      //name 6 AAC;    
      rating.summer.continuous 90.0;     
      geometric_mean_radius 0.00599 ft;    
      resistance 0.67000;     
}       

object transformer_configuration {     
      name transformer_configuration_1087;     
      connect_type SINGLE_PHASE_CENTER_TAPPED;     
      install_type POLETOP;     
      primary_voltage 7200 V;    
      secondary_voltage 120 V;    
      power_rating 5;     
      powerA_rating 5;     
      resistance 0.015;     
      reactance 0.01;     
      shunt_impedance 297.890+331.957j;     
}       

object transformer_configuration {     
      name transformer_configuration_1088;     
      connect_type SINGLE_PHASE_CENTER_TAPPED;     
      install_type PADMOUNT;     
      primary_voltage 7200 V;    
      secondary_voltage 120 V;    
      power_rating 25.0;     
      powerA_rating 25.0;     
      resistance 0.00600;     
      reactance 0.00400;     
      shunt_impedance 339.610+308.545j;     
}       

object transformer_configuration {     
      name transformer_configuration_1089;     
      connect_type SINGLE_PHASE_CENTER_TAPPED;     
      install_type PADMOUNT;     
      primary_voltage 7200 V;    
      secondary_voltage 120 V;    
      power_rating 100.0;     
      powerA_rating 100.0;     
      resistance 0.00150;     
      reactance 0.00100;     
      shunt_impedance 496.060+504.979j;     
}       

object transformer_configuration {     
      name transformer_configuration_1090;     
      connect_type SINGLE_PHASE_CENTER_TAPPED;     
      install_type PADMOUNT;     
      primary_voltage 7200 V;    
      secondary_voltage 120 V;    
      power_rating 10.0;     
      powerA_rating 10.0;     
      resistance 0.015;     
      reactance 0.01;     
      shunt_impedance 308.320+278.001j;     
}       

object transformer_configuration {     
      name transformer_configuration_1091;     
      connect_type SINGLE_PHASE_CENTER_TAPPED;     
      install_type PADMOUNT;     
      primary_voltage 7200 V;    
      secondary_voltage 120 V;    
      power_rating 50.0;     
      powerA_rating 50.0;     
      resistance 0.00300;     
      reactance 0.00200;     
      shunt_impedance 391.760+406.836j;     
}       

object transformer_configuration {     
      name transformer_configuration_1092;     
      connect_type SINGLE_PHASE_CENTER_TAPPED;     
      install_type PADMOUNT;     
      primary_voltage 7200 V;    
      secondary_voltage 120 V;    
      power_rating 5;     
      powerA_rating 5;     
      resistance 0.015;     
      reactance 0.01;     
      shunt_impedance 297.890+307.592j;     
}       

object transformer_configuration {     
      name transformer_configuration_1093;     
      connect_type SINGLE_PHASE_CENTER_TAPPED;     
      install_type PADMOUNT;     
      primary_voltage 7200 V;    
      secondary_voltage 120 V;    
      power_rating 75.0;     
      powerA_rating 75.0;     
      resistance 0.00200;     
      reactance 0.00133;     
      shunt_impedance 443.910+501.455j;     
}       

object transformer_configuration {     
      name transformer_configuration_1094;     
      connect_type SINGLE_PHASE_CENTER_TAPPED;     
      install_type POLETOP;     
      primary_voltage 7200 V;    
      secondary_voltage 120 V;    
      power_rating 50.0;     
      powerA_rating 50.0;     
      resistance 0.00300;     
      reactance 0.00200;     
      shunt_impedance 391.760+434.823j;     
}       

object transformer_configuration {     
      name transformer_configuration_1095;     
      connect_type SINGLE_PHASE_CENTER_TAPPED;     
      install_type POLETOP;     
      primary_voltage 7200 V;    
      secondary_voltage 120 V;    
      power_rating 25.0;     
      powerA_rating 25.0;     
      resistance 0.00600;     
      reactance 0.00400;     
      shunt_impedance 339.610+361.794j;     
}       

object transformer_configuration {     
      name transformer_configuration_1096;     
      connect_type SINGLE_PHASE_CENTER_TAPPED;     
      install_type PADMOUNT;     
      primary_voltage 7200 V;    
      secondary_voltage 120 V;    
      power_rating 25.0;     
      powerB_rating 25.0;     
      resistance 0.00600;     
      reactance 0.00400;     
      shunt_impedance 339.610+322.457j;     
}       

object transformer_configuration {     
      name transformer_configuration_1097;     
      connect_type SINGLE_PHASE_CENTER_TAPPED;     
      install_type PADMOUNT;     
      primary_voltage 7200 V;    
      secondary_voltage 120 V;    
      power_rating 50.0;     
      powerB_rating 50.0;     
      resistance 0.00300;     
      reactance 0.00200;     
      shunt_impedance 391.760+373.112j;     
}       

object transformer_configuration {     
      name transformer_configuration_1098;     
      connect_type SINGLE_PHASE_CENTER_TAPPED;     
      install_type POLETOP;     
      primary_voltage 7200 V;    
      secondary_voltage 120 V;    
      power_rating 5;     
      powerB_rating 5;     
      resistance 0.015;     
      reactance 0.01;     
      shunt_impedance 297.890+236.776j;     
}       

object transformer_configuration {     
      name transformer_configuration_1099;     
      connect_type SINGLE_PHASE_CENTER_TAPPED;     
      install_type PADMOUNT;     
      primary_voltage 7200 V;    
      secondary_voltage 120 V;    
      power_rating 10.0;     
      powerB_rating 10.0;     
      resistance 0.015;     
      reactance 0.01;     
      shunt_impedance 308.320+294.498j;     
}       

object transformer_configuration {     
      name transformer_configuration_1100;     
      connect_type SINGLE_PHASE_CENTER_TAPPED;     
      install_type PADMOUNT;     
      primary_voltage 7200 V;    
      secondary_voltage 120 V;    
      power_rating 5;     
      powerB_rating 5;     
      resistance 0.015;     
      reactance 0.01;     
      shunt_impedance 297.890+251.681j;     
}       

object transformer_configuration {     
      name transformer_configuration_1101;     
      connect_type SINGLE_PHASE_CENTER_TAPPED;     
      install_type PADMOUNT;     
      primary_voltage 7200 V;    
      secondary_voltage 120 V;    
      power_rating 15.0;     
      powerB_rating 15.0;     
      resistance 0.01000;     
      reactance 0.00667;     
      shunt_impedance 318.750+348.388j;     
}       

object transformer_configuration {     
      name transformer_configuration_1102;     
      connect_type SINGLE_PHASE_CENTER_TAPPED;     
      install_type POLETOP;     
      primary_voltage 7200 V;    
      secondary_voltage 120 V;    
      power_rating 25.0;     
      powerB_rating 25.0;     
      resistance 0.00600;     
      reactance 0.00400;     
      shunt_impedance 339.610+370.241j;     
}       

object transformer_configuration {     
      name transformer_configuration_1103;     
      connect_type SINGLE_PHASE_CENTER_TAPPED;     
      install_type POLETOP;     
      primary_voltage 7200 V;    
      secondary_voltage 120 V;    
      power_rating 50.0;     
      powerB_rating 50.0;     
      resistance 0.00300;     
      reactance 0.00200;     
      shunt_impedance 391.760+397.178j;     
}       

object transformer_configuration {     
      name transformer_configuration_1104;     
      connect_type SINGLE_PHASE_CENTER_TAPPED;     
      install_type POLETOP;     
      primary_voltage 7200 V;    
      secondary_voltage 120 V;    
      power_rating 75.0;     
      powerB_rating 75.0;     
      resistance 0.00200;     
      reactance 0.00133;     
      shunt_impedance 443.910+427.112j;     
}       

object transformer_configuration {     
      name transformer_configuration_1105;     
      connect_type SINGLE_PHASE_CENTER_TAPPED;     
      install_type POLETOP;     
      primary_voltage 7200 V;    
      secondary_voltage 120 V;    
      power_rating 37.5;     
      powerB_rating 37.5;     
      resistance 0.00400;     
      reactance 0.00267;     
      shunt_impedance 365.685+370.917j;     
}       

object transformer_configuration {     
      name transformer_configuration_1106;     
      connect_type SINGLE_PHASE_CENTER_TAPPED;     
      install_type PADMOUNT;     
      primary_voltage 7200 V;    
      secondary_voltage 120 V;    
      power_rating 37.5;     
      powerB_rating 37.5;     
      resistance 0.00400;     
      reactance 0.00267;     
      shunt_impedance 365.685+424.379j;     
}       

object transformer_configuration {     
      name transformer_configuration_1107;     
      connect_type SINGLE_PHASE_CENTER_TAPPED;     
      install_type PADMOUNT;     
      primary_voltage 7200 V;    
      secondary_voltage 120 V;    
      power_rating 25.0;     
      powerC_rating 25.0;     
      resistance 0.00600;     
      reactance 0.00400;     
      shunt_impedance 339.610+385.427j;     
}       

object transformer_configuration {     
      name transformer_configuration_1108;     
      connect_type SINGLE_PHASE_CENTER_TAPPED;     
      install_type PADMOUNT;     
      primary_voltage 7200 V;    
      secondary_voltage 120 V;    
      power_rating 75.0;     
      powerC_rating 75.0;     
      resistance 0.00200;     
      reactance 0.00133;     
      shunt_impedance 443.910+424.003j;     
}       

object transformer_configuration {     
      name transformer_configuration_1109;     
      connect_type SINGLE_PHASE_CENTER_TAPPED;     
      install_type PADMOUNT;     
      primary_voltage 7200 V;    
      secondary_voltage 120 V;    
      power_rating 50.0;     
      powerC_rating 50.0;     
      resistance 0.00300;     
      reactance 0.00200;     
      shunt_impedance 391.760+398.358j;     
}       

object transformer_configuration {     
      name transformer_configuration_1110;     
      connect_type SINGLE_PHASE_CENTER_TAPPED;     
      install_type PADMOUNT;     
      primary_voltage 7200 V;    
      secondary_voltage 120 V;    
      power_rating 37.5;     
      powerC_rating 37.5;     
      resistance 0.00400;     
      reactance 0.00267;     
      shunt_impedance 365.685+324.710j;     
}       

object transformer_configuration {     
      name transformer_configuration_1111;     
      connect_type SINGLE_PHASE_CENTER_TAPPED;     
      install_type POLETOP;     
      primary_voltage 7200 V;    
      secondary_voltage 120 V;    
      power_rating 25.0;     
      powerC_rating 25.0;     
      resistance 0.00600;     
      reactance 0.00400;     
      shunt_impedance 339.610+353.219j;     
}       

object transformer_configuration {     
      name transformer_configuration_1112;     
      connect_type SINGLE_PHASE_CENTER_TAPPED;     
      install_type PADMOUNT;     
      primary_voltage 7200 V;    
      secondary_voltage 120 V;    
      power_rating 5;     
      powerC_rating 5;     
      resistance 0.015;     
      reactance 0.01;     
      shunt_impedance 297.890+319.906j;     
}       

object transformer_configuration {     
      name transformer_configuration_1113;     
      connect_type SINGLE_PHASE_CENTER_TAPPED;     
      install_type PADMOUNT;     
      primary_voltage 7200 V;    
      secondary_voltage 120 V;    
      power_rating 10.0;     
      powerC_rating 10.0;     
      resistance 0.015;     
      reactance 0.01;     
      shunt_impedance 308.320+336.070j;     
}       

object transformer_configuration {     
      name transformer_configuration_1114;     
      connect_type SINGLE_PHASE_CENTER_TAPPED;     
      install_type POLETOP;     
      primary_voltage 7200 V;    
      secondary_voltage 120 V;    
      power_rating 50.0;     
      powerC_rating 50.0;     
      resistance 0.00300;     
      reactance 0.00200;     
      shunt_impedance 391.760+331.773j;     
}       

object transformer_configuration {     
      name transformer_configuration_1115;     
      connect_type SINGLE_PHASE_CENTER_TAPPED;     
      install_type POLETOP;     
      primary_voltage 7200 V;    
      secondary_voltage 120 V;    
      power_rating 100.0;     
      powerC_rating 100.0;     
      resistance 0.00150;     
      reactance 0.00100;     
      shunt_impedance 496.060+521.092j;     
}       

object transformer_configuration {     
      name transformer_configuration_1116;     
      connect_type SINGLE_PHASE_CENTER_TAPPED;     
      install_type POLETOP;     
      primary_voltage 7200 V;    
      secondary_voltage 120 V;    
      power_rating 75.0;     
      powerC_rating 75.0;     
      resistance 0.00200;     
      reactance 0.00133;     
      shunt_impedance 443.910+405.547j;     
}       

object transformer_configuration {     
      name transformer_configuration_1208;     
      connect_type WYE_WYE;     
      install_type PADMOUNT;     
      primary_voltage 12470.000 V;    
      secondary_voltage 480 V;    
      power_rating 25.0;     
      powerA_rating 25.0;     
      resistance 0.00400;     
      reactance 0.02000;     
      shunt_impedance 339.610+326.822j;     
}       

object transformer_configuration {     
      name transformer_configuration_1209;     
      connect_type WYE_WYE;     
      install_type PADMOUNT;     
      primary_voltage 12470.000 V;    
      secondary_voltage 480 V;    
      power_rating 175.0;     
      powerB_rating 175.0;     
      resistance 0.00057;     
      reactance 0.00286;     
      shunt_impedance 652.510+703.928j;     
}       

object transformer_configuration {     
      name transformer_configuration_1210;     
      connect_type WYE_WYE;     
      install_type PADMOUNT;     
      primary_voltage 12470.000 V;    
      secondary_voltage 480 V;    
      power_rating 15.0;     
      powerA_rating 15.0;     
      resistance 0.00667;     
      reactance 0.03333;     
      shunt_impedance 318.750+328.255j;     
}       

object transformer_configuration {     
      name transformer_configuration_1211;     
      connect_type WYE_WYE;     
      install_type PADMOUNT;     
      primary_voltage 12470.000 V;    
      secondary_voltage 480 V;    
      power_rating 25.0;     
      powerB_rating 25.0;     
      resistance 0.00400;     
      reactance 0.02000;     
      shunt_impedance 339.610+334.049j;     
}       

object transformer_configuration {     
      name transformer_configuration_1212;     
      connect_type WYE_WYE;     
      install_type PADMOUNT;     
      primary_voltage 12470.000 V;    
      secondary_voltage 480 V;    
      power_rating 75.0;     
      powerA_rating 25.0;     
      powerB_rating 25.0;     
      powerC_rating 25.0;     
      resistance 0.00133;     
      reactance 0.00667;     
      shunt_impedance 443.910+470.843j;     
}       

object transformer_configuration {     
      name transformer_configuration_1213;     
      connect_type WYE_WYE;     
      install_type PADMOUNT;     
      primary_voltage 12470.000 V;    
      secondary_voltage 480 V;    
      power_rating 150.0;     
      powerA_rating 50.0;     
      powerB_rating 50.0;     
      powerC_rating 50.0;     
      resistance 0.00067;     
      reactance 0.00333;     
      shunt_impedance 600.360+698.489j;     
}       

object transformer_configuration {     
      name transformer_configuration_1214;     
      connect_type WYE_WYE;     
      install_type PADMOUNT;     
      primary_voltage 12470.000 V;    
      secondary_voltage 480 V;    
      power_rating 300.0;     
      powerA_rating 100.0;     
      powerB_rating 100.0;     
      powerC_rating 100.0;     
      resistance 0.00033;     
      reactance 0.00167;     
      shunt_impedance 913.260+856.319j;     
}       

object transformer_configuration {     
      name transformer_configuration_1215;     
      connect_type WYE_WYE;     
      install_type PADMOUNT;     
      primary_voltage 12470.000 V;    
      secondary_voltage 480 V;    
      power_rating 45.0;     
      powerA_rating 15.0;     
      powerB_rating 15.0;     
      powerC_rating 15.0;     
      resistance 0.00222;     
      reactance 0.01111;     
      shunt_impedance 381.330+329.847j;     
}       

object transformer_configuration {     
      name transformer_configuration_1216;     
      connect_type WYE_WYE;     
      install_type PADMOUNT;     
      primary_voltage 12470.000 V;    
      secondary_voltage 480 V;    
      power_rating 1500.0;     
      powerA_rating 500.0;     
      powerB_rating 500.0;     
      powerC_rating 500.0;     
      resistance 0.00007;     
      reactance 0.00033;     
      shunt_impedance 3416.460+3019.385j;     
}       

object transformer_configuration {     
      name transformer_configuration_1217;     
      connect_type WYE_WYE;     
      install_type PADMOUNT;     
      primary_voltage 12470.000 V;    
      secondary_voltage 480 V;    
      power_rating 225.0;     
      powerA_rating 75.0;     
      powerB_rating 75.0;     
      powerC_rating 75.0;     
      resistance 0.00044;     
      reactance 0.00222;     
      shunt_impedance 756.810+685.346j;     
}       

object transformer_configuration {     
      name transformer_configuration_1218;     
      connect_type WYE_WYE;     
      install_type PADMOUNT;     
      primary_voltage 12470.000 V;    
      secondary_voltage 480 V;    
      power_rating 525.0;     
      powerA_rating 175.0;     
      powerB_rating 175.0;     
      powerC_rating 175.0;     
      resistance 0.00019;     
      reactance 0.00095;     
      shunt_impedance 1382.610+1289.808j;     
}       

object transformer_configuration {     
      name transformer_configuration_1219;     
      connect_type WYE_WYE;     
      install_type POLETOP;     
      primary_voltage 12470.000 V;    
      secondary_voltage 480 V;    
      power_rating 45.0;     
      powerA_rating 15.0;     
      powerB_rating 15.0;     
      powerC_rating 15.0;     
      resistance 0.00222;     
      reactance 0.01111;     
      shunt_impedance 381.330+403.321j;     
}       

object transformer_configuration {     
      name transformer_configuration_1220;     
      connect_type WYE_WYE;     
      install_type PADMOUNT;     
      primary_voltage 12470.000 V;    
      secondary_voltage 480 V;    
      power_rating 50.0;     
      powerA_rating 0.0;     
      powerB_rating 0.0;     
      powerC_rating 50.0;     
      resistance 0.00200;     
      reactance 0.01000;     
      shunt_impedance 391.760+310.048j;     
}       

object transformer_configuration {     
      name transformer_configuration_1221;     
      connect_type WYE_WYE;     
      install_type PADMOUNT;     
      primary_voltage 12470.000 V;    
      secondary_voltage 480 V;    
      power_rating 750.0;     
      powerA_rating 250.0;     
      powerB_rating 250.0;     
      powerC_rating 250.0;     
      resistance 0.00013;     
      reactance 0.00067;     
      shunt_impedance 1851.960+1895.660j;     
}       

object transformer_configuration {     
      name transformer_configuration_1222;     
      connect_type WYE_WYE;     
      install_type POLETOP;     
      primary_voltage 12470.000 V;    
      secondary_voltage 480 V;    
      power_rating 750.0;     
      powerA_rating 250.0;     
      powerB_rating 250.0;     
      powerC_rating 250.0;     
      resistance 0.00013;     
      reactance 0.00067;     
      shunt_impedance 1851.960+1707.799j;     
}       

object transformer_configuration {     
      name transformer_configuration_1223;     
      connect_type WYE_WYE;     
      install_type POLETOP;     
      primary_voltage 12470.000 V;    
      secondary_voltage 480 V;    
      power_rating 225.0;     
      powerA_rating 75.0;     
      powerB_rating 75.0;     
      powerC_rating 75.0;     
      resistance 0.00044;     
      reactance 0.00222;     
      shunt_impedance 756.810+840.026j;     
}       

object transformer_configuration {     
      name transformer_configuration_1224;     
      connect_type WYE_WYE;     
      install_type POLETOP;     
      primary_voltage 12470.000 V;    
      secondary_voltage 480 V;    
      power_rating 75.0;     
      powerA_rating 25.0;     
      powerB_rating 25.0;     
      powerC_rating 25.0;     
      resistance 0.00133;     
      reactance 0.00667;     
      shunt_impedance 443.910+405.931j;     
}       

object transformer_configuration {     
      name transformer_configuration_1225;     
      connect_type WYE_WYE;     
      install_type POLETOP;     
      primary_voltage 12470.000 V;    
      secondary_voltage 480 V;    
      power_rating 25.0;     
      powerA_rating 25.0;     
      resistance 0.00400;     
      reactance 0.02000;     
      shunt_impedance 339.610+339.867j;     
}       

object transformer_configuration {     
      name transformer_configuration_1226;     
      connect_type WYE_WYE;     
      install_type PADMOUNT;     
      primary_voltage 12470.000 V;    
      secondary_voltage 480 V;    
      power_rating 87.5;     
      powerA_rating 37.5;     
      powerB_rating 25.0;     
      powerC_rating 25.0;     
      resistance 0.00114;     
      reactance 0.00571;     
      shunt_impedance 469.985+425.920j;     
}       

object transformer_configuration {     
      name transformer_configuration_1227;     
      connect_type WYE_WYE;     
      install_type PADMOUNT;     
      primary_voltage 12470.000 V;    
      secondary_voltage 480 V;    
      power_rating 15.0;     
      powerA_rating 15.0;     
      powerB_rating 0.0;     
      powerC_rating 0.0;     
      resistance 0.00667;     
      reactance 0.03333;     
      shunt_impedance 318.750+297.025j;     
}       

object transformer_configuration {     
      name transformer_configuration_1228;     
      connect_type WYE_WYE;     
      install_type PADMOUNT;     
      primary_voltage 12470.000 V;    
      secondary_voltage 480 V;    
      power_rating 50.0;     
      powerA_rating 50.0;     
      resistance 0.00200;     
      reactance 0.01000;     
      shunt_impedance 391.760+381.569j;     
}       

object transformer_configuration {     
      name transformer_configuration_1229;     
      connect_type WYE_WYE;     
      install_type PADMOUNT;     
      primary_voltage 12470.000 V;    
      secondary_voltage 480 V;    
      power_rating 75.0;     
      powerA_rating 75.0;     
      resistance 0.00133;     
      reactance 0.00667;     
      shunt_impedance 443.910+433.754j;     
}       

object transformer_configuration {     
      name transformer_configuration_1230;     
      connect_type WYE_WYE;     
      install_type PADMOUNT;     
      primary_voltage 12470.000 V;    
      secondary_voltage 480 V;    
      power_rating 30.0;     
      powerA_rating 10.0;     
      powerB_rating 10.0;     
      powerC_rating 10.0;     
      resistance 0.00333;     
      reactance 0.01667;     
      shunt_impedance 350.040+331.669j;     
}       

object transformer_configuration {     
      name transformer_configuration_1231;     
      connect_type WYE_WYE;     
      install_type PADMOUNT;     
      primary_voltage 12470.000 V;    
      secondary_voltage 480 V;    
      power_rating 25.0;     
      powerA_rating 0.0;     
      powerB_rating 25.0;     
      powerC_rating 0.0;     
      resistance 0.00400;     
      reactance 0.02000;     
      shunt_impedance 339.610+377.929j;     
}       

object transformer_configuration {     
      name transformer_configuration_1232;     
      connect_type WYE_WYE;     
      install_type PADMOUNT;     
      primary_voltage 12470.000 V;    
      secondary_voltage 480 V;    
      power_rating 50.0;     
      powerA_rating 0.0;     
      powerB_rating 50.0;     
      powerC_rating 0.0;     
      resistance 0.00200;     
      reactance 0.01000;     
      shunt_impedance 391.760+413.312j;     
}       

object transformer_configuration {     
      name transformer_configuration_1233;     
      connect_type WYE_WYE;     
      install_type PADMOUNT;     
      primary_voltage 12470.000 V;    
      secondary_voltage 480 V;    
      power_rating 25.0;     
      powerC_rating 25.0;     
      resistance 0.00400;     
      reactance 0.02000;     
      shunt_impedance 339.610+402.613j;     
}       

object transformer_configuration {     
      name transformer_configuration_1234;     
      connect_type WYE_WYE;     
      install_type PADMOUNT;     
      primary_voltage 12470.000 V;    
      secondary_voltage 480 V;    
      power_rating 50.0;     
      powerC_rating 50.0;     
      resistance 0.00200;     
      reactance 0.01000;     
      shunt_impedance 391.760+380.897j;     
}       

object transformer_configuration {     
      name transformer_configuration_1235;     
      connect_type WYE_WYE;     
      install_type PADMOUNT;     
      primary_voltage 12470.000 V;    
      secondary_voltage 480 V;    
      power_rating 100.0;     
      powerA_rating 50.0;     
      powerB_rating 50.0;     
      powerC_rating 0.0;     
      resistance 0.00100;     
      reactance 0.00500;     
      shunt_impedance 496.060+548.971j;     
}       

object transformer_configuration {     
      name transformer_configuration_1236;     
      connect_type WYE_WYE;     
      install_type POLETOP;     
      primary_voltage 12470.000 V;    
      secondary_voltage 480 V;    
      power_rating 45.0;     
      powerA_rating 10.0;     
      powerB_rating 10.0;     
      powerC_rating 25.0;     
      resistance 0.00222;     
      reactance 0.01111;     
      shunt_impedance 381.330+301.280j;     
}       

object transformer_configuration {     
      name transformer_configuration_1237;     
      connect_type WYE_WYE;     
      install_type POLETOP;     
      primary_voltage 12470.000 V;    
      secondary_voltage 480 V;    
      power_rating 25.0;     
      powerC_rating 25.0;     
      resistance 0.00400;     
      reactance 0.02000;     
      shunt_impedance 339.610+361.294j;     
}       

object transformer_configuration {     
      name transformer_configuration_1238;     
      connect_type WYE_WYE;     
      install_type POLETOP;     
      primary_voltage 12470.000 V;    
      secondary_voltage 480 V;    
      power_rating 50.0;     
      powerA_rating 0.0;     
      powerB_rating 50.0;     
      powerC_rating 0.0;     
      resistance 0.00200;     
      reactance 0.01000;     
      shunt_impedance 391.760+406.313j;     
}       

object transformer_configuration {     
      name transformer_configuration_1239;     
      connect_type WYE_WYE;     
      install_type POLETOP;     
      primary_voltage 12470.000 V;    
      secondary_voltage 480 V;    
      power_rating 150.0;     
      powerA_rating 50.0;     
      powerB_rating 50.0;     
      powerC_rating 50.0;     
      resistance 0.00067;     
      reactance 0.00333;     
      shunt_impedance 600.360+577.896j;     
}       

object transformer_configuration {     
      name transformer_configuration_1240;     
      connect_type WYE_WYE;     
      install_type POLETOP;     
      primary_voltage 12470.000 V;    
      secondary_voltage 480 V;    
      power_rating 50.0;     
      powerA_rating 25.0;     
      powerB_rating 25.0;     
      resistance 0.00200;     
      reactance 0.01000;     
      shunt_impedance 391.760+419.001j;     
}       

object transformer_configuration {     
      name transformer_configuration_1241;     
      connect_type WYE_WYE;     
      install_type POLETOP;     
      primary_voltage 12470.000 V;    
      secondary_voltage 480 V;    
      power_rating 25.0;     
      powerA_rating 0.0;     
      powerB_rating 25.0;     
      powerC_rating 0.0;     
      resistance 0.00400;     
      reactance 0.02000;     
      shunt_impedance 339.610+369.415j;     
}       

object transformer_configuration {     
      name transformer_configuration_1242;     
      connect_type WYE_WYE;     
      install_type POLETOP;     
      primary_voltage 12470.000 V;    
      secondary_voltage 480 V;    
      power_rating 100.0;     
      powerB_rating 50.0;     
      powerC_rating 50.0;     
      resistance 0.00100;     
      reactance 0.00500;     
      shunt_impedance 496.060+547.333j;     
}       

object transformer_configuration {     
      name transformer_configuration_1243;     
      connect_type WYE_WYE;     
      install_type POLETOP;     
      primary_voltage 12470.000 V;    
      secondary_voltage 480 V;    
      power_rating 100.0;     
      powerA_rating 0.0;     
      powerB_rating 50.0;     
      powerC_rating 50.0;     
      resistance 0.00100;     
      reactance 0.00500;     
      shunt_impedance 496.060+516.884j;     
}       

object transformer_configuration {     
      name transformer_configuration_1244;     
      connect_type WYE_WYE;     
      install_type POLETOP;     
      primary_voltage 12470.000 V;    
      secondary_voltage 480 V;    
      power_rating 175.0;     
      powerC_rating 175.0;     
      resistance 0.00057;     
      reactance 0.00286;     
      shunt_impedance 652.510+691.730j;     
}       

object transformer_configuration {     
      name transformer_configuration_1245;     
      connect_type WYE_WYE;     
      install_type POLETOP;     
      primary_voltage 12470.000 V;    
      secondary_voltage 480 V;    
      power_rating 300.0;     
      powerA_rating 100.0;     
      powerB_rating 100.0;     
      powerC_rating 100.0;     
      resistance 0.00033;     
      reactance 0.00167;     
      shunt_impedance 913.260+851.705j;     
}       

object transformer_configuration {     
      name transformer_configuration_1246;     
      connect_type WYE_WYE;     
      install_type POLETOP;     
      primary_voltage 12470.000 V;    
      secondary_voltage 480 V;    
      power_rating 525.0;     
      powerA_rating 175.0;     
      powerB_rating 175.0;     
      powerC_rating 175.0;     
      resistance 0.00019;     
      reactance 0.00095;     
      shunt_impedance 1382.610+1231.190j;     
}       

object transformer_configuration {     
      name transformer_configuration_1247;     
      connect_type WYE_WYE;     
      install_type POLETOP;     
      primary_voltage 12470.000 V;    
      secondary_voltage 480 V;    
      power_rating 10.0;     
      powerA_rating 0.0;     
      powerB_rating 0.0;     
      powerC_rating 10.0;     
      resistance 0.01;     
      reactance 0.05;     
      shunt_impedance 308.320+300.069j;     
}       

object transformer_configuration {     
      name transformer_configuration_1248;     
      connect_type WYE_WYE;     
      install_type POLETOP;     
      primary_voltage 12470.000 V;    
      secondary_voltage 480 V;    
      power_rating 100.0;     
      powerA_rating 100.0;     
      resistance 0.00100;     
      reactance 0.00500;     
      shunt_impedance 496.060+505.314j;     
}       

object transformer_configuration {     
      name transformer_configuration_1249;     
      connect_type WYE_WYE;     
      install_type POLETOP;     
      primary_voltage 12470.000 V;    
      secondary_voltage 480 V;    
      power_rating 5.0;     
      powerA_rating 5.0;     
      powerB_rating 0.0;     
      powerC_rating 0.0;     
      resistance 0.01;     
      reactance 0.05;     
      shunt_impedance 297.890+326.218j;     
}       

object transformer_configuration {     
      name transformer_configuration_1250;     
      connect_type WYE_WYE;     
      install_type POLETOP;     
      primary_voltage 12470.000 V;    
      secondary_voltage 480 V;    
      power_rating 50.0;     
      powerA_rating 50.0;     
      powerB_rating 0.0;     
      powerC_rating 0.0;     
      resistance 0.00200;     
      reactance 0.01000;     
      shunt_impedance 391.760+360.791j;     
}       

object transformer_configuration {     
      name transformer_configuration_1251;     
      connect_type WYE_WYE;     
      install_type POLETOP;     
      primary_voltage 12470.000 V;    
      secondary_voltage 480 V;    
      power_rating 25.0;     
      powerA_rating 25.0;     
      powerB_rating 0.0;     
      powerC_rating 0.0;     
      resistance 0.00400;     
      reactance 0.02000;     
      shunt_impedance 339.610+322.987j;     
}       

object transformer_configuration {     
      name transformer_configuration_1252;     
      connect_type WYE_WYE;     
      install_type PADMOUNT;     
      primary_voltage 12470.000 V;    
      secondary_voltage 480 V;    
      power_rating 50.0;     
      powerA_rating 50.0;     
      powerB_rating 0.0;     
      powerC_rating 0.0;     
      resistance 0.00200;     
      reactance 0.01000;     
      shunt_impedance 391.760+508.288j;     
}       

object transformer_configuration {     
      name transformer_configuration_1253;     
      connect_type WYE_WYE;     
      install_type POLETOP;     
      primary_voltage 12470.000 V;    
      secondary_voltage 480 V;    
      power_rating 175.0;     
      powerA_rating 175.0;     
      powerB_rating 0.0;     
      powerC_rating 0.0;     
      resistance 0.00057;     
      reactance 0.00286;     
      shunt_impedance 652.510+611.886j;     
}       

object transformer_configuration {     
      name transformer_configuration_1254;     
      connect_type WYE_WYE;     
      install_type PADMOUNT;     
      primary_voltage 12470.000 V;    
      secondary_voltage 480 V;    
      power_rating 15.0;     
      powerB_rating 15.0;     
      resistance 0.00667;     
      reactance 0.03333;     
      shunt_impedance 318.750+379.960j;     
}       

object transformer_configuration {     
      name transformer_configuration_1255;     
      connect_type WYE_WYE;     
      install_type POLETOP;     
      primary_voltage 12470.000 V;    
      secondary_voltage 480 V;    
      power_rating 3000.0;     
      powerA_rating 1000.0;     
      powerB_rating 1000.0;     
      powerC_rating 1000.0;     
      resistance 0.00003;     
      reactance 0.00017;     
      shunt_impedance 6545.460+7174.576j;     
}       

object triplex_line_conductor {     
      name triplex_4/0 AA;    
      resistance 0.48;     
      geometric_mean_radius 0.0158;     
}       

object triplex_line_configuration {     
      name triplex_line_configuration_1;     
      conductor_1 triplex_4/0 AA;    
      conductor_2 triplex_4/0 AA;    
      conductor_N triplex_4/0 AA;    
      insulation_thickness 0.08;     
      diameter 0.522;     
}       

object underground_line_conductor {     
      name underground_line_conductor_2;     
      //name 750 AAC (Conc);   
      rating.summer.continuous 425.0;     
      outer_diameter 1.96;     
      conductor_gmr 0.0321 ft;    
      conductor_diameter 0.998;     
      conductor_resistance 0.122496;     
      neutral_gmr 0.0751564095285873 ft;    
      neutral_resistance 5.3856;     
      neutral_diameter 0.1019;     
      neutral_strands 15.0;     
      shield_gmr 0.00;     
      shield_resistance 0.00;     
}       

object underground_line_conductor {     
      name underground_line_conductor_3;     
      //name 2 AL (Conc);   
      rating.summer.continuous 112.0;     
      outer_diameter 1.09;     
      conductor_gmr 0.0088 ft;    
      conductor_diameter 0.292;     
      conductor_resistance 1.38336;     
      neutral_gmr 0.0348162687755351 ft;    
      neutral_resistance 13.5696;     
      neutral_diameter 0.0641;     
      neutral_strands 6.0;     
      shield_gmr 0.00;     
      shield_resistance 0.00;     
}       

object underground_line_conductor {     
      name underground_line_conductor_7;     
      //name 1000 AAC (Conc);   
      rating.summer.continuous 488.0;     
      outer_diameter 2.15;     
      conductor_gmr 0.0371 ft;    
      conductor_diameter 1.152;     
      conductor_resistance 0.091872;     
      neutral_gmr 0.0842565914341201 ft;    
      neutral_resistance 5.3856;     
      neutral_diameter 0.1019;     
      neutral_strands 20.0;     
      shield_gmr 0.00;     
      shield_resistance 0.00;     
}       

object underground_line_conductor {     
      name underground_line_conductor_8;     
      //name 4/0 AAC (Conc);   
      rating.summer.continuous 214.0;     
      outer_diameter 1.32;     
      conductor_gmr 0.0177 ft;    
      conductor_diameter 0.528;     
      conductor_resistance 0.433488;     
      neutral_gmr 0.0485380344339232 ft;    
      neutral_resistance 13.5696;     
      neutral_diameter 0.0641;     
      neutral_strands 11.0;     
      shield_gmr 0.00;     
      shield_resistance 0.00;     
}       

object underground_line_conductor {     
      name underground_line_conductor_9;     
      //name 1/0 AAC (Conc);   
      rating.summer.continuous 142.0;     
      outer_diameter 1.27;     
      conductor_gmr 0.01142 ft;    
      conductor_diameter 0.362;     
      conductor_resistance 0.88704;     
      neutral_gmr 0.0489686771417213 ft;    
      neutral_resistance 13.86528;     
      neutral_diameter 0.0641;     
      neutral_strands 16.0;     
      shield_gmr 0.00;     
      shield_resistance 0.00;     
}       

object transformer_configuration {
     name trans_config_to_feeder;
     connect_type WYE_WYE;
     install_type PADMOUNT;
     primary_voltage 230000;
     secondary_voltage 12470.000;
     power_rating 7.2 MVA;
     impedance 0.00033+0.0022j;
}

//Start actual feeder

object meter {
     name network_node;
     bustype SWING;
     nominal_voltage 230000;
     object player {
          property voltage_A;
          loop 100;
          file V_A.player;
     };
     object player {
          property voltage_B;
          loop 100;
          file V_B.player;
     };
     object player {
          property voltage_C;
          loop 100;
          file V_C.player;
     };
     phases ABCN;
}

object transformer {
     name substation_transformer;
     from network_node;
     to R2-12-47-1_node_488;
     phases ABCN;
     configuration trans_config_to_feeder;
}

        
object regulator {     
      name R2-12-47-1_reg_1;     
      from R2-12-47-1_node_488;     
      to R2-12-47-1_meter_83;     
      phases ABCN;     
      configuration feeder_reg_cfg;     
}       
object capacitor {     
      name R2-12-47-1_cap_1;     
      phases ABCN;     
      pt_phase B;     
      parent R2-12-47-1_node_187;     
      phases_connected ABC;     
      control VOLT;     
      voltage_set_high 7300;     
      voltage_set_low 7100;     
      capacitor_A 0.2 MVAr;    
      capacitor_B 0.2 MVAr;    
      capacitor_C 0.2 MVAr;    
      control_level INDIVIDUAL;     
      time_delay 30.0;     
      dwell_time 30.0;     
      cap_nominal_voltage 7200;     
      nominal_voltage 7200;     
}       
object fuse {     
      name R2-12-47-1_fuse_1;     
      phases CN;     
      from R2-12-47-1_node_426;     
      to R2-12-47-1_node_483;     
      current_limit 50000;// 80;    
      status CLOSED;     
}       
object fuse {     
      name R2-12-47-1_fuse_2;     
      phases ABCN;     
      from R2-12-47-1_node_470;     
      to R2-12-47-1_node_471;     
      current_limit 50000;// 80;    
      status CLOSED;     
}       
object fuse {     
      name R2-12-47-1_fuse_3;     
      phases ABCN;     
      from R2-12-47-1_node_237;     
      to R2-12-47-1_node_238;     
      current_limit 50000;// 80;    
      status CLOSED;     
}       
object fuse {     
      name R2-12-47-1_fuse_4;     
      phases ABCN;     
      from R2-12-47-1_node_249;     
      to R2-12-47-1_node_269;     
      current_limit 50000;// 80;    
      status CLOSED;     
}       
object fuse {     
      name R2-12-47-1_fuse_5;     
      phases AN;     
      from R2-12-47-1_node_270;     
      to R2-12-47-1_node_271;     
      current_limit 50000;// 80;    
      status CLOSED;     
}       
object fuse {     
      name R2-12-47-1_fuse_6;     
      phases BN;     
      from R2-12-47-1_node_373;     
      to R2-12-47-1_node_368;     
      current_limit 50000;// 30;    
      status CLOSED;     
}       
object fuse {     
      name R2-12-47-1_fuse_7;     
      phases ABCN;     
      from R2-12-47-1_node_349;     
      to R2-12-47-1_node_351;     
      current_limit 50000;// 50;    
      status CLOSED;     
}       
object fuse {     
      name R2-12-47-1_fuse_8;     
      phases AN;     
      from R2-12-47-1_node_379;     
      to R2-12-47-1_node_264;     
      current_limit 50000;// 30;    
      status CLOSED;     
}       
object fuse {     
      name R2-12-47-1_fuse_9;     
      phases ABCN;     
      from R2-12-47-1_node_350;     
      to R2-12-47-1_node_346;     
      current_limit 50000;// 30;    
      status CLOSED;     
}       
object fuse {     
      name R2-12-47-1_fuse_10;     
      phases ABCN;     
      from R2-12-47-1_node_352;     
      to R2-12-47-1_node_354;     
      current_limit 50000;// 50;    
      status CLOSED;     
}       
object fuse {     
      name R2-12-47-1_fuse_11;     
      phases AN;     
      from R2-12-47-1_node_335;     
      to R2-12-47-1_node_336;     
      current_limit 50000;// 50;    
      status CLOSED;     
}       
object fuse {     
      name R2-12-47-1_fuse_12;     
      phases AN;     
      from R2-12-47-1_node_353;     
      to R2-12-47-1_node_347;     
      current_limit 50000;// 30;    
      status CLOSED;     
}       
object fuse {     
      name R2-12-47-1_fuse_13;     
      phases BN;     
      from R2-12-47-1_node_389;     
      to R2-12-47-1_node_390;     
      current_limit 50000;// 80;    
      status CLOSED;     
}       
object fuse {     
      name R2-12-47-1_fuse_14;     
      phases BN;     
      from R2-12-47-1_node_394;     
      to R2-12-47-1_node_393;     
      current_limit 50000;// 10;    
      status CLOSED;     
}       
object fuse {     
...